NOVO24/1726533/Chaves.dss
! ==========================================================
! CHAVES — geradas de UNSEMT (Line com Switch=Y)
! ==========================================================
! 23 chave(s) omitida(s): os dois PACs fora da rede de MT deste alimentador, o que criaria ilha flutuante — ex.: 1416878597, 536887604, 349199110
New Line.1844148497 Phases=1 Bus1=100_1844148524.3 Bus2=100_1844148525.3 Switch=Y r1=1e-4 x1=1e-4 r0=1e-4 x0=1e-4 normamps=9999
New Line.1844054031 Phases=1 Bus1=100_1844054050.2 Bus2=100_1844054051.2 Switch=Y r1=1e-4 x1=1e-4 r0=1e-4 x0=1e-4 normamps=9999
New Line.1844234376 Phases=1 Bus1=100_1844234395.2 Bus2=100_1844234394.2 Switch=Y r1=1e-4 x1=1e-4 r0=1e-4 x0=1e-4 normamps=9999
New Line.1762554650 Phases=3 Bus1=100_1762554680.1.2.3 Bus2=100_1762554679.1.2.3 Switch=Y r1=1e-4 x1=1e-4 r0=1e-4 x0=1e-4 normamps=9999
New Line.1943498971 Phases=1 Bus1=node_2260430850.2 Bus2=node_2260430851.2 Switch=Y r1=1e-4 x1=1e-4 r0=1e-4 x0=1e-4 normamps=9999
New Line.1844101255 Phases=1 Bus1=100_1844101283.3 Bus2=100_1844101284.3 Switch=Y r1=1e-4 x1=1e-4 r0=1e-4 x0=1e-4 normamps=9999
New Line.1762554795 Phases=3 Bus1=100_1762554812.1.2.3 Bus2=100_1762554811.1.2.3 Switch=Y r1=1e-4 x1=1e-4 r0=1e-4 x0=1e-4 normamps=9999
New Line.1762554802 Phases=3 Bus1=100_1762554812.1.2.3 Bus2=100_1762554811.1.2.3 Switch=Y r1=1e-4 x1=1e-4 r0=1e-4 x0=1e-4 normamps=9999
New Line.346985537 Phases=1 Bus1=node_541878053.2 Bus2=node_541878054.2 Switch=Y r1=1e-4 x1=1e-4 r0=1e-4 x0=1e-4 normamps=9999
New Line.346445587 Phases=3 Bus1=node_2275661141.1.2.3 Bus2=node_2275661142.1.2.3 Switch=Y r1=1e-4 x1=1e-4 r0=1e-4 x0=1e-4 normamps=9999
New Line.2060548901 Phases=3 Bus1=node_2374002312.1.2.3 Bus2=node_2374002313.1.2.3 Switch=Y r1=1e-4 x1=1e-4 r0=1e-4 x0=1e-4 normamps=9999
New Line.1901653801 Phases=1 Bus1=node_2221002965.1 Bus2=node_2221002966.1 Switch=Y r1=1e-4 x1=1e-4 r0=1e-4 x0=1e-4 normamps=9999
New Line.1443136149 Phases=1 Bus1=node_1739443678.1 Bus2=node_1739443679.1 Switch=Y r1=1e-4 x1=1e-4 r0=1e-4 x0=1e-4 normamps=9999
New Line.1416878546 Phases=3 Bus1=100_1482911521.1.2.3 Bus2=segm_1416878534.1.2.3 Switch=Y r1=1e-4 x1=1e-4 r0=1e-4 x0=1e-4 normamps=9999
New Line.1416878571 Phases=3 Bus1=100_1482911521.1.2.3 Bus2=100_1482911522.1.2.3 Switch=Y r1=1e-4 x1=1e-4 r0=1e-4 x0=1e-4 normamps=9999
New Line.1416878590 Phases=3 Bus1=100_1482911522.1.2.3 Bus2=segm_1416878540.1.2.3 Switch=Y r1=1e-4 x1=1e-4 r0=1e-4 x0=1e-4 normamps=9999
New Line.1482452008 Phases=1 Bus1=node_1790095673.1 Bus2=node_1790095674.1 Switch=Y r1=1e-4 x1=1e-4 r0=1e-4 x0=1e-4 normamps=9999
New Line.2485977321 Phases=1 Bus1=node_2648694739.2 Bus2=node_2648694740.2 Switch=Y r1=1e-4 x1=1e-4 r0=1e-4 x0=1e-4 normamps=9999
New Line.1544697944 Phases=1 Bus1=node_1864098705.3 Bus2=node_1864098706.3 Switch=Y r1=1e-4 x1=1e-4 r0=1e-4 x0=1e-4 normamps=9999
New Line.349198841 Phases=1 Bus1=100_349198855.3 Bus2=100_900147178.3 Switch=Y r1=1e-4 x1=1e-4 r0=1e-4 x0=1e-4 normamps=9999
New Line.739715766 Phases=1 Bus1=100_739715784.1 Bus2=100_739715785.1 Switch=Y r1=1e-4 x1=1e-4 r0=1e-4 x0=1e-4 normamps=9999
New Line.1717811135 Phases=3 Bus1=node_2043855063.1.2.3 Bus2=node_2043855064.1.2.3 Switch=Y r1=1e-4 x1=1e-4 r0=1e-4 x0=1e-4 normamps=9999
New Line.349199857 Phases=1 Bus1=100_349199870.3 Bus2=100_349199871.3 Switch=Y r1=1e-4 x1=1e-4 r0=1e-4 x0=1e-4 normamps=9999
New Line.1590673691 Phases=1 Bus1=node_1911259512.1 Bus2=node_1911259513.1 Switch=Y r1=1e-4 x1=1e-4 r0=1e-4 x0=1e-4 normamps=9999
New Line.340203768 Phases=3 Bus1=node_534189772.1.2.3 Bus2=node_534189773.1.2.3 Switch=Y r1=1e-4 x1=1e-4 r0=1e-4 x0=1e-4 normamps=9999
New Line.340203433 Phases=1 Bus1=node_534188847.2 Bus2=node_534188848.2 Switch=Y r1=1e-4 x1=1e-4 r0=1e-4 x0=1e-4 normamps=9999
New Line.340203796 Phases=1 Bus1=node_534189826.3 Bus2=node_534189827.3 Switch=Y r1=1e-4 x1=1e-4 r0=1e-4 x0=1e-4 normamps=9999
New Line.336760767 Phases=1 Bus1=node_532716033.2 Bus2=node_532716034.2 Switch=Y r1=1e-4 x1=1e-4 r0=1e-4 x0=1e-4 normamps=9999
New Line.339687442 Phases=3 Bus1=node_533756992.1.2.3 Bus2=node_533756993.1.2.3 Switch=Y r1=1e-4 x1=1e-4 r0=1e-4 x0=1e-4 normamps=9999
New Line.341096278 Phases=1 Bus1=node_534753817.3 Bus2=node_534753818.3 Switch=Y r1=1e-4 x1=1e-4 r0=1e-4 x0=1e-4 normamps=9999
New Line.338595336 Phases=3 Bus1=node_533169974.1.2.3 Bus2=node_533169975.1.2.3 Switch=Y r1=1e-4 x1=1e-4 r0=1e-4 x0=1e-4 normamps=9999
New Line.338597978 Phases=3 Bus1=node_533284422.1.2.3 Bus2=node_533284423.1.2.3 Switch=Y r1=1e-4 x1=1e-4 r0=1e-4 x0=1e-4 normamps=9999
New Line.336760579 Phases=3 Bus1=node_532715661.1.2.3 Bus2=node_532715662.1.2.3 Switch=Y r1=1e-4 x1=1e-4 r0=1e-4 x0=1e-4 normamps=9999
New Line.346445939 Phases=1 Bus1=node_540615542.2 Bus2=node_540615543.2 Switch=Y r1=1e-4 x1=1e-4 r0=1e-4 x0=1e-4 normamps=9999
New Line.342997654 Phases=1 Bus1=node_2320219977.2 Bus2=node_2320219978.2 Switch=Y r1=1e-4 x1=1e-4 r0=1e-4 x0=1e-4 normamps=9999
New Line.340652553 Phases=3 Bus1=node_534414601.1.2.3 Bus2=node_534414602.1.2.3 Switch=Y r1=1e-4 x1=1e-4 r0=1e-4 x0=1e-4 normamps=9999
New Line.339687463 Phases=3 Bus1=node_533757031.1.2.3 Bus2=node_533757032.1.2.3 Switch=Y r1=1e-4 x1=1e-4 r0=1e-4 x0=1e-4 normamps=9999
New Line.339135654 Phases=1 Bus1=node_533600992.2 Bus2=node_533600993.2 Switch=Y r1=1e-4 x1=1e-4 r0=1e-4 x0=1e-4 normamps=9999
New Line.341803258 Phases=1 Bus1=node_535255888.3 Bus2=node_535255889.3 Switch=Y r1=1e-4 x1=1e-4 r0=1e-4 x0=1e-4 normamps=9999
New Line.342037916 Phases=1 Bus1=node_535749096.2 Bus2=node_535749097.2 Switch=Y r1=1e-4 x1=1e-4 r0=1e-4 x0=1e-4 normamps=9999
New Line.338595828 Phases=1 Bus1=node_533171297.3 Bus2=node_533171296.3 Switch=Y r1=1e-4 x1=1e-4 r0=1e-4 x0=1e-4 normamps=9999
New Line.342462080 Phases=1 Bus1=node_536462937.3 Bus2=node_536462938.3 Switch=Y r1=1e-4 x1=1e-4 r0=1e-4 x0=1e-4 normamps=9999
New Line.338882168 Phases=3 Bus1=node_532347579.1.2.3 Bus2=node_532347580.1.2.3 Switch=Y r1=1e-4 x1=1e-4 r0=1e-4 x0=1e-4 normamps=9999
New Line.342997756 Phases=1 Bus1=node_536948745.3 Bus2=node_536948746.3 Switch=Y r1=1e-4 x1=1e-4 r0=1e-4 x0=1e-4 normamps=9999
New Line.338597758 Phases=3 Bus1=node_533283984.1.2.3 Bus2=node_533283985.1.2.3 Switch=Y r1=1e-4 x1=1e-4 r0=1e-4 x0=1e-4 normamps=9999
New Line.338595747 Phases=1 Bus1=node_2270851860.1 Bus2=node_2270851861.1 Switch=Y r1=1e-4 x1=1e-4 r0=1e-4 x0=1e-4 normamps=9999
New Line.341096329 Phases=1 Bus1=node_534753946.3 Bus2=node_534753947.3 Switch=Y r1=1e-4 x1=1e-4 r0=1e-4 x0=1e-4 normamps=9999
New Line.341803363 Phases=1 Bus1=node_535256167.3 Bus2=node_535256168.3 Switch=Y r1=1e-4 x1=1e-4 r0=1e-4 x0=1e-4 normamps=9999
New Line.342773259 Phases=3 Bus1=node_536592885.1.2.3 Bus2=node_536592884.1.2.3 Switch=Y r1=1e-4 x1=1e-4 r0=1e-4 x0=1e-4 normamps=9999
New Line.338597919 Phases=3 Bus1=node_533284306.1.2.3 Bus2=node_533284305.1.2.3 Switch=Y r1=1e-4 x1=1e-4 r0=1e-4 x0=1e-4 normamps=9999
New Line.340203790 Phases=1 Bus1=node_534189808.1 Bus2=node_534189809.1 Switch=Y r1=1e-4 x1=1e-4 r0=1e-4 x0=1e-4 normamps=9999
New Line.342241789 Phases=3 Bus1=node_536050860.1.2.3 Bus2=node_536050859.1.2.3 Switch=Y r1=1e-4 x1=1e-4 r0=1e-4 x0=1e-4 normamps=9999
New Line.341805116 Phases=3 Bus1=node_535406827.1.2.3 Bus2=node_535406828.1.2.3 Switch=Y r1=1e-4 x1=1e-4 r0=1e-4 x0=1e-4 normamps=9999
New Line.338595834 Phases=1 Bus1=node_533171314.3 Bus2=node_533171315.3 Switch=Y r1=1e-4 x1=1e-4 r0=1e-4 x0=1e-4 normamps=9999
New Line.340203900 Phases=1 Bus1=node_534190090.3 Bus2=node_534190091.3 Switch=Y r1=1e-4 x1=1e-4 r0=1e-4 x0=1e-4 normamps=9999
New Line.341463237 Phases=3 Bus1=node_534879292.1.2.3 Bus2=node_534879293.1.2.3 Switch=Y r1=1e-4 x1=1e-4 r0=1e-4 x0=1e-4 normamps=9999
New Line.342773068 Phases=3 Bus1=node_536592491.1.2.3 Bus2=node_536592492.1.2.3 Switch=Y r1=1e-4 x1=1e-4 r0=1e-4 x0=1e-4 normamps=9999
New Line.338597947 Phases=3 Bus1=node_533284365.1.2.3 Bus2=node_533284366.1.2.3 Switch=Y r1=1e-4 x1=1e-4 r0=1e-4 x0=1e-4 normamps=9999
New Line.338597957 Phases=3 Bus1=node_533284384.1.2.3 Bus2=node_533284383.1.2.3 Switch=Y r1=1e-4 x1=1e-4 r0=1e-4 x0=1e-4 normamps=9999
New Line.336760610 Phases=3 Bus1=node_532715719.1.2.3 Bus2=node_532715718.1.2.3 Switch=Y r1=1e-4 x1=1e-4 r0=1e-4 x0=1e-4 normamps=9999
New Line.341463333 Phases=3 Bus1=node_534879496.1.2.3 Bus2=node_534879497.1.2.3 Switch=Y r1=1e-4 x1=1e-4 r0=1e-4 x0=1e-4 normamps=9999
New Line.342241812 Phases=3 Bus1=node_536050905.1.2.3 Bus2=node_536050904.1.2.3 Switch=Y r1=1e-4 x1=1e-4 r0=1e-4 x0=1e-4 normamps=9999
New Line.346502624 Phases=3 Bus1=node_540773705.1.2.3 Bus2=node_540773704.1.2.3 Switch=Y r1=1e-4 x1=1e-4 r0=1e-4 x0=1e-4 normamps=9999
New Line.342241595 Phases=3 Bus1=node_536050457.1.2.3 Bus2=node_536050458.1.2.3 Switch=Y r1=1e-4 x1=1e-4 r0=1e-4 x0=1e-4 normamps=9999
New Line.341804969 Phases=3 Bus1=node_535406555.1.2.3 Bus2=node_535406554.1.2.3 Switch=Y r1=1e-4 x1=1e-4 r0=1e-4 x0=1e-4 normamps=9999
New Line.341805137 Phases=3 Bus1=node_535406866.1.2.3 Bus2=node_535406867.1.2.3 Switch=Y r1=1e-4 x1=1e-4 r0=1e-4 x0=1e-4 normamps=9999
New Line.339687421 Phases=3 Bus1=node_533756953.1.2.3 Bus2=node_533756954.1.2.3 Switch=Y r1=1e-4 x1=1e-4 r0=1e-4 x0=1e-4 normamps=9999
New Line.342773095 Phases=3 Bus1=node_536592548.1.2.3 Bus2=node_536592549.1.2.3 Switch=Y r1=1e-4 x1=1e-4 r0=1e-4 x0=1e-4 normamps=9999
New Line.338595259 Phases=3 Bus1=node_533169767.1.2.3 Bus2=node_533169768.1.2.3 Switch=Y r1=1e-4 x1=1e-4 r0=1e-4 x0=1e-4 normamps=9999
New Line.342462098 Phases=3 Bus1=node_536462991.1.2.3 Bus2=node_536462992.1.2.3 Switch=Y r1=1e-4 x1=1e-4 r0=1e-4 x0=1e-4 normamps=9999
New Line.2260048169 Phases=3 Bus1=node_2476603741.1.2.3 Bus2=node_2476603742.1.2.3 Switch=Y r1=1e-4 x1=1e-4 r0=1e-4 x0=1e-4 normamps=9999
New Line.341096172 Phases=1 Bus1=node_534753553.1 Bus2=node_534753554.1 Switch=Y r1=1e-4 x1=1e-4 r0=1e-4 x0=1e-4 normamps=9999
New Line.340652670 Phases=3 Bus1=node_534414826.1.2.3 Bus2=node_534414827.1.2.3 Switch=Y r1=1e-4 x1=1e-4 r0=1e-4 x0=1e-4 normamps=9999
New Line.341463216 Phases=3 Bus1=node_534879253.1.2.3 Bus2=node_534879254.1.2.3 Switch=Y r1=1e-4 x1=1e-4 r0=1e-4 x0=1e-4 normamps=9999
New Line.342773105 Phases=3 Bus1=node_536592566.1.2.3 Bus2=node_536592567.1.2.3 Switch=Y r1=1e-4 x1=1e-4 r0=1e-4 x0=1e-4 normamps=9999
New Line.342462086 Phases=1 Bus1=node_536462955.3 Bus2=node_536462956.3 Switch=Y r1=1e-4 x1=1e-4 r0=1e-4 x0=1e-4 normamps=9999
New Line.342241779 Phases=3 Bus1=node_536050842.1.2.3 Bus2=node_536050841.1.2.3 Switch=Y r1=1e-4 x1=1e-4 r0=1e-4 x0=1e-4 normamps=9999
New Line.340652680 Phases=3 Bus1=node_534414845.1.2.3 Bus2=node_534414844.1.2.3 Switch=Y r1=1e-4 x1=1e-4 r0=1e-4 x0=1e-4 normamps=9999
New Line.338597897 Phases=3 Bus1=node_533284264.1.2.3 Bus2=node_533284263.1.2.3 Switch=Y r1=1e-4 x1=1e-4 r0=1e-4 x0=1e-4 normamps=9999
New Line.2385656261 Phases=1 Bus1=node_2598325279.1 Bus2=node_2598325280.1 Switch=Y r1=1e-4 x1=1e-4 r0=1e-4 x0=1e-4 normamps=9999
New Line.338598355 Phases=3 Bus1=node_533371010.1.2.3 Bus2=node_533371011.1.2.3 Switch=Y r1=1e-4 x1=1e-4 r0=1e-4 x0=1e-4 normamps=9999
New Line.349199101 Phases=3 Bus1=node_1339149522.1.2.3 Bus2=node_429436691.1.2.3 Switch=Y r1=1e-4 x1=1e-4 r0=1e-4 x0=1e-4 normamps=9999
New Line.340652265 Phases=3 Bus1=node_534323611.1.2.3 Bus2=node_534323612.1.2.3 Switch=Y r1=1e-4 x1=1e-4 r0=1e-4 x0=1e-4 normamps=9999
New Line.340652249 Phases=3 Bus1=node_534323575.1.2.3 Bus2=node_534323576.1.2.3 Switch=Y r1=1e-4 x1=1e-4 r0=1e-4 x0=1e-4 normamps=9999
New Line.338597488 Phases=3 Bus1=node_533283286.1.2.3 Bus2=node_533283287.1.2.3 Switch=Y r1=1e-4 x1=1e-4 r0=1e-4 x0=1e-4 normamps=9999
New Line.339688584 Phases=3 Bus1=node_533900830.1.2.3 Bus2=node_533900831.1.2.3 Switch=Y r1=1e-4 x1=1e-4 r0=1e-4 x0=1e-4 normamps=9999
New Line.341803844 Phases=3 Bus1=node_535257492.1.2.3 Bus2=node_535257493.1.2.3 Switch=Y r1=1e-4 x1=1e-4 r0=1e-4 x0=1e-4 normamps=9999
New Line.342034620 Phases=3 Bus1=node_535560764.1.2.3 Bus2=node_535560765.1.2.3 Switch=Y r1=1e-4 x1=1e-4 r0=1e-4 x0=1e-4 normamps=9999
New Line.1461776626 Phases=3 Bus1=100_1461776639.1.2.3 Bus2=segm_1461776576.1.2.3 Switch=Y r1=1e-4 x1=1e-4 r0=1e-4 x0=1e-4 normamps=9999
New Line.1721486145 Phases=1 Bus1=node_2047516843.1 Bus2=node_2047516844.1 Switch=Y r1=1e-4 x1=1e-4 r0=1e-4 x0=1e-4 normamps=9999
New Line.342774442 Phases=3 Bus1=node_536595103.1.2.3 Bus2=node_536595104.1.2.3 Switch=Y r1=1e-4 x1=1e-4 r0=1e-4 x0=1e-4 normamps=9999
New Line.341805519 Phases=3 Bus1=node_535407562.1.2.3 Bus2=node_535407563.1.2.3 Switch=Y r1=1e-4 x1=1e-4 r0=1e-4 x0=1e-4 normamps=9999
New Line.341805706 Phases=3 Bus1=node_535407921.1.2.3 Bus2=node_535407922.1.2.3 Switch=Y r1=1e-4 x1=1e-4 r0=1e-4 x0=1e-4 normamps=9999
New Line.341097118 Phases=3 Bus1=node_534756075.1.2.3 Bus2=node_534756076.1.2.3 Switch=Y r1=1e-4 x1=1e-4 r0=1e-4 x0=1e-4 normamps=9999
New Line.342243241 Phases=3 Bus1=node_536053527.1.2.3 Bus2=node_536053528.1.2.3 Switch=Y r1=1e-4 x1=1e-4 r0=1e-4 x0=1e-4 normamps=9999
New Line.2397907011 Phases=3 Bus1=node_2476603916.1.2.3 Bus2=node_2476603915.1.2.3 Switch=Y r1=1e-4 x1=1e-4 r0=1e-4 x0=1e-4 normamps=9999
New Line.339687225 Phases=3 Bus1=node_533756563.1.2.3 Bus2=node_533756564.1.2.3 Switch=Y r1=1e-4 x1=1e-4 r0=1e-4 x0=1e-4 normamps=9999
New Line.341805106 Phases=3 Bus1=node_535406809.1.2.3 Bus2=node_535406810.1.2.3 Switch=Y r1=1e-4 x1=1e-4 r0=1e-4 x0=1e-4 normamps=9999
New Line.346752367 Phases=3 Bus1=node_541434135.1.2.3 Bus2=node_541434136.1.2.3 Switch=Y r1=1e-4 x1=1e-4 r0=1e-4 x0=1e-4 normamps=9999
New Line.342997726 Phases=3 Bus1=node_536948667.1.2.3 Bus2=node_536948668.1.2.3 Switch=Y r1=1e-4 x1=1e-4 r0=1e-4 x0=1e-4 normamps=9999
New Line.338595246 Phases=1 Bus1=node_1999015912.3 Bus2=node_1999015913.3 Switch=Y r1=1e-4 x1=1e-4 r0=1e-4 x0=1e-4 normamps=9999
New Line.341803305 Phases=1 Bus1=node_535256017.1 Bus2=node_535256018.1 Switch=Y r1=1e-4 x1=1e-4 r0=1e-4 x0=1e-4 normamps=9999
New Line.342241605 Phases=3 Bus1=node_536050476.1.2.3 Bus2=node_536050475.1.2.3 Switch=Y r1=1e-4 x1=1e-4 r0=1e-4 x0=1e-4 normamps=9999
New Line.341803347 Phases=3 Bus1=node_535256131.1.2.3 Bus2=node_535256132.1.2.3 Switch=Y r1=1e-4 x1=1e-4 r0=1e-4 x0=1e-4 normamps=9999
New Line.342037886 Phases=1 Bus1=node_535749006.2 Bus2=node_535749007.2 Switch=Y r1=1e-4 x1=1e-4 r0=1e-4 x0=1e-4 normamps=9999
New Line.341803370 Phases=1 Bus1=node_535256188.3 Bus2=node_535256189.3 Switch=Y r1=1e-4 x1=1e-4 r0=1e-4 x0=1e-4 normamps=9999
New Line.342773142 Phases=3 Bus1=node_536592641.1.2.3 Bus2=node_536592642.1.2.3 Switch=Y r1=1e-4 x1=1e-4 r0=1e-4 x0=1e-4 normamps=9999
New Line.340203802 Phases=1 Bus1=node_534189844.1 Bus2=node_534189845.1 Switch=Y r1=1e-4 x1=1e-4 r0=1e-4 x0=1e-4 normamps=9999
New Line.338595753 Phases=3 Bus1=node_533171119.1.2.3 Bus2=node_533171120.1.2.3 Switch=Y r1=1e-4 x1=1e-4 r0=1e-4 x0=1e-4 normamps=9999
New Line.342462064 Phases=1 Bus1=node_536462901.1 Bus2=node_536462902.1 Switch=Y r1=1e-4 x1=1e-4 r0=1e-4 x0=1e-4 normamps=9999
New Line.2234438812 Phases=1 Bus1=node_2540176061.2 Bus2=node_2540176062.2 Switch=Y r1=1e-4 x1=1e-4 r0=1e-4 x0=1e-4 normamps=9999
New Line.339687411 Phases=3 Bus1=node_533756935.1.2.3 Bus2=node_533756936.1.2.3 Switch=Y r1=1e-4 x1=1e-4 r0=1e-4 x0=1e-4 normamps=9999
New Line.341805147 Phases=3 Bus1=node_535406885.1.2.3 Bus2=node_535406884.1.2.3 Switch=Y r1=1e-4 x1=1e-4 r0=1e-4 x0=1e-4 normamps=9999
New Line.342773048 Phases=3 Bus1=node_536592455.1.2.3 Bus2=node_536592456.1.2.3 Switch=Y r1=1e-4 x1=1e-4 r0=1e-4 x0=1e-4 normamps=9999
New Line.336760757 Phases=3 Bus1=node_532716015.1.2.3 Bus2=node_532716016.1.2.3 Switch=Y r1=1e-4 x1=1e-4 r0=1e-4 x0=1e-4 normamps=9999
New Line.438490476 Phases=1 Bus1=node_707385188.2 Bus2=node_707385189.2 Switch=Y r1=1e-4 x1=1e-4 r0=1e-4 x0=1e-4 normamps=9999
New Line.441315890 Phases=1 Bus1=node_710326453.3 Bus2=node_710326452.3 Switch=Y r1=1e-4 x1=1e-4 r0=1e-4 x0=1e-4 normamps=9999
New Line.342774486 Phases=3 Bus1=node_536595181.1.2.3 Bus2=node_536595182.1.2.3 Switch=Y r1=1e-4 x1=1e-4 r0=1e-4 x0=1e-4 normamps=9999
New Line.436450873 Phases=1 Bus1=node_705311287.3 Bus2=node_705311288.3 Switch=Y r1=1e-4 x1=1e-4 r0=1e-4 x0=1e-4 normamps=9999
New Line.341803624 Phases=3 Bus1=node_535256916.1.2.3 Bus2=node_535256917.1.2.3 Switch=Y r1=1e-4 x1=1e-4 r0=1e-4 x0=1e-4 normamps=9999
New Line.536887559 Phases=3 Bus1=segm_536887547.1.2.3 Bus2=100_536887610.1.2.3 Switch=Y r1=1e-4 x1=1e-4 r0=1e-4 x0=1e-4 normamps=9999
New Line.536887597 Phases=3 Bus1=100_536887611.1.2.3 Bus2=100_536887610.1.2.3 Switch=Y r1=1e-4 x1=1e-4 r0=1e-4 x0=1e-4 normamps=9999
New Line.349198791 Phases=3 Bus1=100_349198769.1.2.3 Bus2=100_349198790.1.2.3 Switch=Y r1=1e-4 x1=1e-4 r0=1e-4 x0=1e-4 normamps=9999
New Line.560817891 Phases=1 Bus1=node_829562245.2 Bus2=node_829562246.2 Switch=Y r1=1e-4 x1=1e-4 r0=1e-4 x0=1e-4 normamps=9999
New Line.340653759 Phases=3 Bus1=node_534416868.1.2.3 Bus2=node_534416869.1.2.3 Switch=Y r1=1e-4 x1=1e-4 r0=1e-4 x0=1e-4 normamps=9999
New Line.736184918 Phases=1 Bus1=node_2249300319.1 Bus2=node_2249300320.1 Switch=Y r1=1e-4 x1=1e-4 r0=1e-4 x0=1e-4 normamps=9999
New Line.349198811 Phases=1 Bus1=100_349198824.2 Bus2=100_349198825.2 Switch=Y r1=1e-4 x1=1e-4 r0=1e-4 x0=1e-4 normamps=9999
New Line.2696632853 Phases=3 Bus1=node_2875504131.1.2.3 Bus2=node_2875504132.1.2.3 Switch=Y r1=1e-4 x1=1e-4 r0=1e-4 x0=1e-4 normamps=9999
New Line.338598970 Phases=3 Bus1=node_2481981145.1.2.3 Bus2=node_2481981146.1.2.3 Switch=Y r1=1e-4 x1=1e-4 r0=1e-4 x0=1e-4 normamps=9999
New Line.2353919323 Phases=1 Bus1=node_2499233335.1 Bus2=node_2499233336.1 Switch=Y r1=1e-4 x1=1e-4 r0=1e-4 x0=1e-4 normamps=9999
New Line.341094886 Phases=3 Bus1=node_2481980402.1.2.3 Bus2=node_2481980403.1.2.3 Switch=Y r1=1e-4 x1=1e-4 r0=1e-4 x0=1e-4 normamps=9999
New Line.342462070 Phases=3 Bus1=node_2481980985.1.2.3 Bus2=node_2481980986.1.2.3 Switch=Y r1=1e-4 x1=1e-4 r0=1e-4 x0=1e-4 normamps=9999
New Line.1886917005 Phases=1 Bus1=100_1886917034.3 Bus2=100_1886917033.3 Switch=Y r1=1e-4 x1=1e-4 r0=1e-4 x0=1e-4 normamps=9999
New Line.2391977040 Phases=1 Bus1=node_2525524930.2 Bus2=node_2525524931.2 Switch=Y r1=1e-4 x1=1e-4 r0=1e-4 x0=1e-4 normamps=9999
New Line.2174975762 Phases=3 Bus1=node_2481979978.1.2.3 Bus2=node_2481979979.1.2.3 Switch=Y r1=1e-4 x1=1e-4 r0=1e-4 x0=1e-4 normamps=9999
New Line.2406237369 Phases=1 Bus1=node_2549658592.2 Bus2=node_2549658593.2 Switch=Y r1=1e-4 x1=1e-4 r0=1e-4 x0=1e-4 normamps=9999
New Line.2337627896 Phases=1 Bus1=node_2562517637.3 Bus2=node_2562517672.3 Switch=Y r1=1e-4 x1=1e-4 r0=1e-4 x0=1e-4 normamps=9999
New Line.2609829959 Phases=1 Bus1=node_2763397455.3 Bus2=node_2763397456.3 Switch=Y r1=1e-4 x1=1e-4 r0=1e-4 x0=1e-4 normamps=9999
New Line.346731845 Phases=1 Bus1=node_541439537.3 Bus2=node_541439538.3 Switch=Y r1=1e-4 x1=1e-4 r0=1e-4 x0=1e-4 normamps=9999
New Line.2694245624 Phases=3 Bus1=node_2871988489.1.2.3 Bus2=node_2871988490.1.2.3 Switch=Y r1=1e-4 x1=1e-4 r0=1e-4 x0=1e-4 normamps=9999
New Line.336759410 Phases=1 Bus1=node_531334080.3 Bus2=node_531334081.3 Switch=Y r1=1e-4 x1=1e-4 r0=1e-4 x0=1e-4 normamps=9999
New Line.2694246160 Phases=3 Bus1=node_2871989826.1.2.3 Bus2=node_2871989827.1.2.3 Switch=Y r1=1e-4 x1=1e-4 r0=1e-4 x0=1e-4 normamps=9999
New Line.346933673 Phases=1 Bus1=node_541822345.3 Bus2=node_541822346.3 Switch=Y r1=1e-4 x1=1e-4 r0=1e-4 x0=1e-4 normamps=9999
New Line.2563513815 Phases=1 Bus1=node_2701050781.1 Bus2=node_2701050782.1 Switch=Y r1=1e-4 x1=1e-4 r0=1e-4 x0=1e-4 normamps=9999
New Line.2560362456 Phases=1 Bus1=node_2713659044.3 Bus2=node_2713659045.3 Switch=Y r1=1e-4 x1=1e-4 r0=1e-4 x0=1e-4 normamps=9999
New Line.2694245161 Phases=1 Bus1=node_2871987351.3 Bus2=node_2871987352.3 Switch=Y r1=1e-4 x1=1e-4 r0=1e-4 x0=1e-4 normamps=9999
New Line.2570824848 Phases=3 Bus1=node_2805125467.1.2.3 Bus2=node_2805125468.1.2.3 Switch=Y r1=1e-4 x1=1e-4 r0=1e-4 x0=1e-4 normamps=9999
New Line.2670447405 Phases=3 Bus1=node_2840421127.1.2.3 Bus2=node_2840421458.1.2.3 Switch=Y r1=1e-4 x1=1e-4 r0=1e-4 x0=1e-4 normamps=9999
New Line.2219061968 Phases=1 Bus1=node_2524378390.2 Bus2=node_2524378391.2 Switch=Y r1=1e-4 x1=1e-4 r0=1e-4 x0=1e-4 normamps=9999
New Line.336760738 Phases=3 Bus1=node_532715982.1.2.3 Bus2=node_532715983.1.2.3 Switch=Y r1=1e-4 x1=1e-4 r0=1e-4 x0=1e-4 normamps=9999
New Line.346645202 Phases=1 Bus1=node_541168430.3 Bus2=node_541168431.3 Switch=Y r1=1e-4 x1=1e-4 r0=1e-4 x0=1e-4 normamps=9999
New Line.339132140 Phases=1 Bus1=node_533373560.3 Bus2=node_533373561.3 Switch=Y r1=1e-4 x1=1e-4 r0=1e-4 x0=1e-4 normamps=9999
New Line.648136431 Phases=1 Bus1=node_916880838.1 Bus2=node_916880839.1 Switch=Y r1=1e-4 x1=1e-4 r0=1e-4 x0=1e-4 normamps=9999
New Line.2694244961 Phases=1 Bus1=node_2871986830.3 Bus2=node_2871986831.3 Switch=Y r1=1e-4 x1=1e-4 r0=1e-4 x0=1e-4 normamps=9999
New Line.613561150 Phases=1 Bus1=node_881584237.2 Bus2=node_881584238.2 Switch=Y r1=1e-4 x1=1e-4 r0=1e-4 x0=1e-4 normamps=9999
New Line.2716656277 Phases=1 Bus1=node_2919439427.1 Bus2=node_2919439428.1 Switch=Y r1=1e-4 x1=1e-4 r0=1e-4 x0=1e-4 normamps=9999
New Line.648016141 Phases=1 Bus1=node_916786207.3 Bus2=node_916786208.3 Switch=Y r1=1e-4 x1=1e-4 r0=1e-4 x0=1e-4 normamps=9999
New Line.610452309 Phases=1 Bus1=node_878518340.1 Bus2=node_878518341.1 Switch=Y r1=1e-4 x1=1e-4 r0=1e-4 x0=1e-4 normamps=9999
New Line.610452326 Phases=3 Bus1=node_878518380.1.2.3 Bus2=node_878518381.1.2.3 Switch=Y r1=1e-4 x1=1e-4 r0=1e-4 x0=1e-4 normamps=9999
New Line.610452222 Phases=1 Bus1=node_878518066.1 Bus2=node_878518067.1 Switch=Y r1=1e-4 x1=1e-4 r0=1e-4 x0=1e-4 normamps=9999
New Line.658154335 Phases=1 Bus1=node_929311990.2 Bus2=node_929311991.2 Switch=Y r1=1e-4 x1=1e-4 r0=1e-4 x0=1e-4 normamps=9999
New Line.615106968 Phases=1 Bus1=node_881601305.1 Bus2=node_881601306.1 Switch=Y r1=1e-4 x1=1e-4 r0=1e-4 x0=1e-4 normamps=9999
New Line.341806208 Phases=3 Bus1=node_535408878.1.2.3 Bus2=node_535408879.1.2.3 Switch=Y r1=1e-4 x1=1e-4 r0=1e-4 x0=1e-4 normamps=9999
New Line.341804735 Phases=3 Bus1=node_535259937.1.2.3 Bus2=node_535259938.1.2.3 Switch=Y r1=1e-4 x1=1e-4 r0=1e-4 x0=1e-4 normamps=9999
New Line.340652999 Phases=3 Bus1=node_534415419.1.2.3 Bus2=node_534415420.1.2.3 Switch=Y r1=1e-4 x1=1e-4 r0=1e-4 x0=1e-4 normamps=9999
New Line.339131614 Phases=3 Bus1=node_533372442.1.2.3 Bus2=node_533372443.1.2.3 Switch=Y r1=1e-4 x1=1e-4 r0=1e-4 x0=1e-4 normamps=9999
New Line.712662301 Phases=3 Bus1=node_985709172.1.2.3 Bus2=node_985709173.1.2.3 Switch=Y r1=1e-4 x1=1e-4 r0=1e-4 x0=1e-4 normamps=9999
New Line.336759484 Phases=3 Bus1=node_531334278.1.2.3 Bus2=node_531334279.1.2.3 Switch=Y r1=1e-4 x1=1e-4 r0=1e-4 x0=1e-4 normamps=9999
New Line.349199508 Phases=3 Bus1=100_349199477.1.2.3 Bus2=100_349199498.1.2.3 Switch=Y r1=1e-4 x1=1e-4 r0=1e-4 x0=1e-4 normamps=9999
New Line.349199728 Phases=3 Bus1=100_349199697.1.2.3 Bus2=100_349199718.1.2.3 Switch=Y r1=1e-4 x1=1e-4 r0=1e-4 x0=1e-4 normamps=9999
New Line.1464202782 Phases=1 Bus1=100_1464202813.3 Bus2=100_1464202812.3 Switch=Y r1=1e-4 x1=1e-4 r0=1e-4 x0=1e-4 normamps=9999
New Line.349199464 Phases=3 Bus1=100_349199454.1.2.3 Bus2=100_349199433.1.2.3 Switch=Y r1=1e-4 x1=1e-4 r0=1e-4 x0=1e-4 normamps=9999
New Line.349067790 Phases=3 Bus1=100_349067780.1.2.3 Bus2=100_349067759.1.2.3 Switch=Y r1=1e-4 x1=1e-4 r0=1e-4 x0=1e-4 normamps=9999
New Line.340652963 Phases=3 Bus1=node_534415353.1.2.3 Bus2=node_534415354.1.2.3 Switch=Y r1=1e-4 x1=1e-4 r0=1e-4 x0=1e-4 normamps=9999
New Line.340654025 Phases=3 Bus1=node_534417318.1.2.3 Bus2=node_534417319.1.2.3 Switch=Y r1=1e-4 x1=1e-4 r0=1e-4 x0=1e-4 normamps=9999
New Line.342241307 Phases=3 Bus1=node_535899391.1.2.3 Bus2=node_535899392.1.2.3 Switch=Y r1=1e-4 x1=1e-4 r0=1e-4 x0=1e-4 normamps=9999
New Line.342773648 Phases=3 Bus1=node_434881567.1.2.3 Bus2=node_2850287428.1.2.3 Switch=Y r1=1e-4 x1=1e-4 r0=1e-4 x0=1e-4 normamps=9999
New Line.342243048 Phases=3 Bus1=node_536053206.1.2.3 Bus2=node_536053207.1.2.3 Switch=Y r1=1e-4 x1=1e-4 r0=1e-4 x0=1e-4 normamps=9999
New Line.340204349 Phases=3 Bus1=node_534320089.1.2.3 Bus2=node_534320090.1.2.3 Switch=Y r1=1e-4 x1=1e-4 r0=1e-4 x0=1e-4 normamps=9999
New Line.349199376 Phases=3 Bus1=100_349199366.1.2.3 Bus2=100_349199345.1.2.3 Switch=Y r1=1e-4 x1=1e-4 r0=1e-4 x0=1e-4 normamps=9999
New Line.349198756 Phases=3 Bus1=100_349198746.1.2.3 Bus2=100_349198725.1.2.3 Switch=Y r1=1e-4 x1=1e-4 r0=1e-4 x0=1e-4 normamps=9999
New Line.349199816 Phases=3 Bus1=100_349199806.1.2.3 Bus2=100_349199785.1.2.3 Switch=Y r1=1e-4 x1=1e-4 r0=1e-4 x0=1e-4 normamps=9999
New Line.341463343 Phases=3 Bus1=node_534879515.1.2.3 Bus2=node_534879514.1.2.3 Switch=Y r1=1e-4 x1=1e-4 r0=1e-4 x0=1e-4 normamps=9999
New Line.349199684 Phases=3 Bus1=100_349199674.1.2.3 Bus2=100_349199653.1.2.3 Switch=Y r1=1e-4 x1=1e-4 r0=1e-4 x0=1e-4 normamps=9999
New Line.338598993 Phases=3 Bus1=node_533372181.1.2.3 Bus2=node_533372182.1.2.3 Switch=Y r1=1e-4 x1=1e-4 r0=1e-4 x0=1e-4 normamps=9999
New Line.341464396 Phases=3 Bus1=node_534881507.1.2.3 Bus2=node_534881508.1.2.3 Switch=Y r1=1e-4 x1=1e-4 r0=1e-4 x0=1e-4 normamps=9999
New Line.342242254 Phases=3 Bus1=node_536051740.1.2.3 Bus2=node_536051741.1.2.3 Switch=Y r1=1e-4 x1=1e-4 r0=1e-4 x0=1e-4 normamps=9999
New Line.341803892 Phases=3 Bus1=node_535257624.1.2.3 Bus2=node_535257625.1.2.3 Switch=Y r1=1e-4 x1=1e-4 r0=1e-4 x0=1e-4 normamps=9999
New Line.346830582 Phases=1 Bus1=node_541634980.1 Bus2=node_541634981.1 Switch=Y r1=1e-4 x1=1e-4 r0=1e-4 x0=1e-4 normamps=9999
New Line.339134898 Phases=3 Bus1=node_533599030.1.2.3 Bus2=node_533599031.1.2.3 Switch=Y r1=1e-4 x1=1e-4 r0=1e-4 x0=1e-4 normamps=9999
New Line.342772853 Phases=3 Bus1=node_536591948.1.2.3 Bus2=node_536591949.1.2.3 Switch=Y r1=1e-4 x1=1e-4 r0=1e-4 x0=1e-4 normamps=9999
New Line.342034431 Phases=3 Bus1=node_535410075.1.2.3 Bus2=node_535410076.1.2.3 Switch=Y r1=1e-4 x1=1e-4 r0=1e-4 x0=1e-4 normamps=9999
New Line.338595853 Phases=3 Bus1=node_533171353.1.2.3 Bus2=node_533171354.1.2.3 Switch=Y r1=1e-4 x1=1e-4 r0=1e-4 x0=1e-4 normamps=9999
New Line.339689158 Phases=1 Bus1=node_2541602157.3 Bus2=node_2541602158.3 Switch=Y r1=1e-4 x1=1e-4 r0=1e-4 x0=1e-4 normamps=9999
New Line.342774627 Phases=3 Bus1=node_536711359.1.2.3 Bus2=node_536711360.1.2.3 Switch=Y r1=1e-4 x1=1e-4 r0=1e-4 x0=1e-4 normamps=9999
New Line.340652914 Phases=3 Bus1=node_534415266.1.2.3 Bus2=node_534415267.1.2.3 Switch=Y r1=1e-4 x1=1e-4 r0=1e-4 x0=1e-4 normamps=9999
New Line.336760731 Phases=1 Bus1=node_532715962.2 Bus2=node_532715961.2 Switch=Y r1=1e-4 x1=1e-4 r0=1e-4 x0=1e-4 normamps=9999
New Line.340652242 Phases=1 Bus1=node_534323554.2 Bus2=node_534323555.2 Switch=Y r1=1e-4 x1=1e-4 r0=1e-4 x0=1e-4 normamps=9999
New Line.342243085 Phases=3 Bus1=node_536053269.1.2.3 Bus2=node_536053270.1.2.3 Switch=Y r1=1e-4 x1=1e-4 r0=1e-4 x0=1e-4 normamps=9999
New Line.338597540 Phases=3 Bus1=node_533283431.1.2.3 Bus2=node_533283430.1.2.3 Switch=Y r1=1e-4 x1=1e-4 r0=1e-4 x0=1e-4 normamps=9999
...
